188
 energy: -275.952808209376 gnorm: 0.000401487996 xtb: 6.6.1 (8d0f1dd)
C            1.25969882704335        0.70311223594305        0.27323893094289
C            0.03803103561970        1.40822355082769        0.17904496645594
C            0.03191882105832        2.82394204767976        0.22463993787433
C            1.25909883681919        3.52856319582702        0.29577509301828
C            2.49751465267388        2.81378896335398        0.16539513233039
C            2.49040512816171        1.42307061659962        0.27551384693566
C            3.71680254414307        0.70089139327524        0.35092847459943
C            4.93722731773946        1.39813232891596        0.42696423816507
C            4.95258381335959        2.79680427476498        0.19749526488766
C            3.74808950864751        3.47760480934854       -0.09445253634933
C            1.23090731778840        4.90059657957024        0.56052302193375
C            0.05982323054343        5.62955983794321        0.46106072786710
C           -1.11768137710259        4.94523934623217        0.18013258911513
C           -1.19029477415834        3.54888086493144        0.20011611571880
H            2.15173366757763        5.38027753488163        0.84165482776434
H           -2.00653432622044        5.50521984158089       -0.05303777156433
C           -1.17811769053342        0.70654951989010        0.03785826884764
C           -1.17931710127843       -0.70304868918791        0.03801141738107
C            0.03566678855534       -1.40674513241533        0.17914784179195
C            1.25851522105521       -0.70367574666984        0.27329623800927
C            1.25321478500586       -3.52907546874494        0.29593940639517
C            0.02719158995319       -2.82245602548688        0.22468869099173
C            2.48802700270018       -1.42567499519925        0.27564338950045
C            2.49282187560652       -2.81640529258395        0.16554965233410
C            3.74224237603268       -3.48234314215599       -0.09441022053203
C            4.94788616359164       -2.80352945704155        0.19738622665175
C            4.93488165397808       -1.40485378163122        0.42697077460776
C            3.71561865926314       -0.70555118298424        0.35108671074681
C           -1.19620213705807       -3.54539325912917        0.19988810067450
C           -1.12582458115482       -4.94187628966512        0.17988956374686
C            0.05051876872383       -5.62808215611537        0.46114656592780
C            1.22276404107583       -4.90103178614654        0.56078402661775
H           -2.01551180711464       -5.50043135811834       -0.05349647946510
H            2.14272400720199       -5.38226470055883        0.84210971713033
C           -3.59369886048073       -0.69966896995182       -0.32853022692608
C           -2.40156255254147       -1.43312095598876       -0.05375490761189
C           -2.39916250423669        1.43865333525462       -0.05360651075299
C           -3.59254864382500        0.70724485501775       -0.32834623494047
C           -4.77903587408400        1.40385473676969       -0.61931912539655
C           -4.84320032039447        2.79642389025389       -0.36582610619241
C           -3.72880600727556        3.46534587280460        0.19859621288448
C           -2.43447801952684        2.82561747393900        0.12488663550612
C           -2.43919398005566       -2.82007477299790        0.12443257148234
C           -3.73459247521066       -3.45772759882753        0.19750258788031
C           -4.84774566151727       -2.78680209002994       -0.36704130104879
C           -4.78129409685600       -1.39422244653504       -0.61988876824111
C           -5.93665305514658        0.70651702008129       -1.02823391881166
C           -6.05842946926795        3.48980018636719       -0.55051358523308
C           -7.14615702383351        2.82962151618552       -1.24992995430455
C           -7.10466959819962        1.42615753394081       -1.41562061010986
C           -8.20646800609597        0.73355320362833       -1.97048330527456
C           -9.27953861547476        1.48352491730051       -2.45339902681608
C           -9.28006792779284        2.86113996906419       -2.36722521315718
C           -8.23887952419856        3.52996702340603       -1.75196693465206
H          -10.12881134990634        0.99776864869072       -2.90583273182697
H          -10.11206246596787        3.42122406281341       -2.76925142052867
H           -8.27380756455966        4.60633747121387       -1.68831524415330
C           -6.20006143086619        4.75530679609793        0.00325227296223
C           -5.20355532822361        5.31738195654897        0.79411607589349
C           -3.97599516047832        4.67390677419096        0.85883416801876
H           -7.13813442885599        5.26782313757418       -0.11422637867885
H           -3.20250449672998        5.06939252749392        1.49473970880387
C           -5.93775688624097       -0.69482979468095       -1.02858855700523
C           -6.06397064376225       -3.47818720814491       -0.55252110458445
C           -7.10683410853269       -1.41241488613390       -1.41658446798307
C           -7.15044042455663       -2.81593691756663       -1.25193340562464
C           -8.24397386263058       -3.51430863335790       -1.75496291041021
C           -9.28396035229456       -2.84348175397110       -2.37006537594569
C           -9.28148058169062       -1.46578621305714       -2.45500871999227
C           -8.20750287252403       -0.71775104418977       -1.97112347061092
H           -8.28042761405754       -4.59068237194990       -1.69222136620108
H          -10.11658051177069       -3.40202314613201       -2.77294417827193
H          -10.12992232424475       -0.97847141892392       -2.90732530532854
C           -3.98398657133498       -4.66614220299351        0.85715205460692
C           -5.21252411347678       -5.30771465462954        0.79159634218970
C           -6.20780514263262       -4.74376676555439        0.00054897619502
H           -3.21144486342508       -5.06313340551843        1.49326577616499
H           -7.14661290664871       -5.25477063450820       -0.11765706005218
C            6.15142353620322       -0.70561002845718        0.59368681474585
C            6.17199033322168       -3.50652569020057        0.14689560574459
C            7.38241229844176       -2.83374813540751        0.58399011420507
C            7.37355149475754       -1.42739891680178        0.73929569965987
C            8.56677990514167       -0.73213817685438        1.04752228245072
C            9.71946180027953       -1.47828308809550        1.29734568294606
C            9.70601452811666       -2.85599521947660        1.22129884309579
C            8.55840845334908       -3.52906324387582        0.84812937985571
H           10.64416223064830       -0.98950207170608        1.55758009709919
H           10.60595771819260       -3.41247309080200        1.44029363080092
H            8.58104965399232       -4.60586022703207        0.78713101473476
C            6.18139386013661       -4.79104688856127       -0.37801284551683
C            5.03281433656032       -5.37678761601381       -0.90928322957630
C            3.82480395327870       -4.72901932126620       -0.72681332140250
H            7.11770277389576       -5.31893712541371       -0.44880441200136
H            2.91969405766809       -5.14601188650401       -1.13380575392840
C            6.15258299665896        0.69684415832200        0.59375418928879
C            6.17785058723883        3.49779092380685        0.14732961227588
C            7.37588816098613        1.41658762410001        0.73958858478178
C            7.38707429464564        2.82296031329410        0.58459109848108
C            8.56413923458090        3.51627801788400        0.84922795940080
C            9.71053830110210        2.84125000447027        1.22257343875246
C            9.72175495142065        1.46349413546045        1.29817776845988
C            8.56793774685862        0.71929442540895        1.04778935141905
H            8.58856007123385        4.59305540542371        0.78851899659455
H           10.61131701161748        3.39618698244767        1.44204484742564
H           10.64556002599357        0.97309510434122        1.55854371225702
C            3.83282105405507        4.72414163677945       -0.72680398671826
C            5.04192162762993        5.36998264749410       -0.90892445481352
C            6.18943619081382        4.78237248095081       -0.37742466995716
H            2.92851846636393        5.14262794847244       -1.13406200087065
H            7.12662712284737        5.30875180116065       -0.44788754403829
C            1.39089315109145       -7.73134605163966        0.96763262385648
C            0.01400915655277       -7.13775255329306        0.65721969762280
H            1.79750148181604       -7.32083186294664        1.88921278945132
H            1.29974696299004       -8.80879958833016        1.09210086695881
H            2.09265775134689       -7.54703303646221        0.15846582104273
C           -0.90350284805584       -7.45653741914911        1.84494153249073
H           -1.91409029388911       -7.10517004263971        1.66423513054281
H           -0.94265183926582       -8.53035592384152        2.01643830917104
H           -0.53074764458468       -6.97554601978164        2.74751177385725
C           -0.52069278517934       -7.80555552684599       -0.61683068538575
H           -0.54663485131643       -8.88607710486319       -0.49120602107558
H           -1.52600972564186       -7.46876890496715       -0.85478328588454
H            0.12281634643106       -7.57215883169807       -1.46294043089715
C            1.40361761549950        7.73064639866940        0.96730108478223
C            0.02578947773534        7.13936455265371        0.65663488974617
H            2.10531527988663        7.54487336690128        0.15842436690986
H            1.31435443802782        8.80828031157350        1.09150653670119
H            1.80915348934339        7.31958363962891        1.88910432774351
C           -0.50741632291362        7.80753072558229       -0.61785544700514
H           -1.51335053141982        7.47249376941448       -0.85572572559388
H           -0.53137633659842        8.88816385019091       -0.49276610089990
H            0.13573643847722        7.57252782468768       -1.46378713755301
C           -0.89160473558633        7.46043300864179        1.84381721741733
H           -0.92905323388676        8.53445497292272        2.01447870385460
H           -1.90271519441196        7.11063719669456        1.66299479804910
H           -0.51998628629826        6.97953278666319        2.74689632956227
C           -6.92187054555276        6.95682149405746        1.68831835567808
C           -5.43139199840491        6.63135499570846        1.53019465659571
H           -7.45285867062472        6.12493504404306        2.14603729835831
H           -7.03715501437015        7.82897795943447        2.32888753783394
H           -7.38448658373250        7.19157950619918        0.73282977682553
C           -4.82411486631801        6.57771470142389        2.93844816710796
H           -3.74252362363065        6.48655826565536        2.91833186865672
H           -5.06556457973125        7.48968376906184        3.48042871348474
H           -5.22953042871351        5.73178782533827        3.48944816615360
C           -4.77437444385687        7.75502936020704        0.71594049926298
H           -4.90684917342498        8.71232509243813        1.21551755182383
H           -3.70954415469952        7.57736422527871        0.59297753585544
H           -5.22274282908224        7.81542454113590       -0.27393277610026
C           -6.93355562412628       -6.94559815594395        1.68339811649153
C           -5.44256341044695       -6.62163297294004        1.52706821442574
H           -7.39540230654839       -7.17929871640907        0.72728685137629
H           -7.05042612028284       -7.81800826189781        2.32331107589886
H           -7.46414864542133       -6.11344598065502        2.14107465218706
C           -4.78576103130685       -7.74586384646760        0.71340779826660
H           -3.72056779507957       -7.56940942940530        0.59187900065739
H           -4.91998608338448       -8.70312279086117        1.21258204263063
H           -5.23292501205949       -7.80552191598528       -0.27705307253222
C           -4.83678300786714       -6.56878767090000        2.93599544339037
H           -5.08007892744291       -7.48039903983752        3.47770670890385
H           -3.75504996823896       -6.47908850454265        2.91715328170108
H           -5.24169239137925       -5.72234453872378        3.48655187791136
C            3.86708551567862       -7.06746032668289       -2.40360759422333
C            5.14778987516583       -6.70356529134905       -1.64624103133504
H            3.59640738641872       -6.28135858428580       -3.10516486652247
H            4.02587287989413       -7.98549922445497       -2.96593559569218
H            3.03359188691629       -7.23737111647643       -1.72700598850161
C            6.28378682652414       -6.62884996252700       -2.67713421718377
H            7.25388943757520       -6.50755491739636       -2.20430113582684
H            6.31263750658110       -7.54382021891608       -3.26530606072792
H            6.12462272429943       -5.79016393304510       -3.35175712442183
C            5.45035678383793       -7.80610783278836       -0.62189912068633
H            5.54873262788442       -8.76800389618755       -1.12078971024989
H            6.37546145276019       -7.59891927198980       -0.08970511187645
H            4.64750392471297       -7.87678447882874        0.10932111084437
C            3.87917189348205        7.06277541025506       -2.40323796815309
C            5.15914015947451        6.69667859166649       -1.64568230196346
H            3.04576769223912        7.23377561713010       -1.72680634122882
H            4.03953000181037        7.98074835569564       -2.96523399042803
H            3.60745039604228        6.27732179444376       -3.10511917600273
C            5.46325108370279        7.79853679718595       -0.62106338528712
H            6.38784183679534        7.58969999739503       -0.08862608260237
H            5.56337762945107        8.76036527843322       -1.11973242284717
H            4.66029210759944        7.87040102195473        0.10992501936681
C            6.29519467931308        6.62029771605372       -2.67637504265940
H            6.32555006463389        7.53525151579850       -3.26450213721706
H            7.26502766248931        6.49747400427958       -2.20338144991884
H            6.13485118816890        5.78189335879161       -3.35107556208677
