  210
       -312.76499528
 C         -5.9088890638        7.2880402830        2.3761232341
 C         -0.7919332767       -1.1533296559       -0.3157736562
 C         -1.1583292994        0.1185614676       -0.8097052668
 H         -4.7746619304        7.5632290664        0.5851354408
 C         -2.2928721104        0.2168533650       -1.6195084533
 H         -2.4895916773        1.1260903840       -2.1624228202
 C         -3.1476738999       -0.8493273889       -1.7519804353
 H         -4.0164075377       -0.7740691677       -2.3899520251
 C         -2.9615141476       -2.0019822150       -0.9842113203
 C         -1.7747743550       -2.1697262339       -0.2744365575
 C         -1.6088461582       -3.3595202794        0.5808142621
 C         -1.8607769192       -4.6487644032        0.1183685108
 H         -2.1272586244       -4.8027900243       -0.9165316638
 C         -1.7398855243       -5.7347728156        0.9660829071
 H         -1.9355528289       -6.7296441504        0.5918790493
 C         -1.3673170027       -5.5509749464        2.2871338947
 H         -1.2739859543       -6.4005603048        2.9477463640
 C         -1.1146037241       -4.2723184860        2.7565016206
 H         -0.8288029832       -4.1208358912        3.7867093291
 C         -1.2367841642       -3.1855823963        1.9133466405
 H         -1.0482721975       -2.1882915351        2.2831069553
 C         -4.0330796981       -3.0210129468       -1.0207259659
 C         -4.3054216930       -3.6314376895       -2.2376791728
 H         -3.7268180529       -3.3512158732       -3.1070474029
 C         -5.3010619574       -4.5895508766       -2.3662170827
 C         -6.0534188487       -4.9440548229       -1.2410890946
 C         -5.7977324617       -4.3247912274       -0.0140903930
 C         -4.7894967781       -3.3609570717        0.1044810923
 C         -4.5403280722       -2.7080032291        1.4041099119
 C         -4.3277175051       -3.4691918485        2.5497333191
 H         -4.3046893349       -4.5456881794        2.4762456266
 C         -4.1282033292       -2.8583956902        3.7729572691
 H         -3.9662651913       -3.4640806029        4.6526104803
 C         -4.1380697119       -1.4772653224        3.8713382849
 H         -3.9880789044       -0.9990171276        4.8284679671
 C         -4.3411498333       -0.7114919869        2.7358691061
 H         -4.3529009474        0.3665862978        2.8093981096
 C         -4.5382410124       -1.3204100188        1.5096426777
 H         -4.7078647262       -0.7170409178        0.6296400870
 C         -6.6173919611       -4.6886700788        1.1623156627
 C         -6.6395386807       -5.9986088360        1.6300142233
 H         -6.0362821458       -6.7485549038        1.1387575999
 C         -7.4152712539       -6.3398615301        2.7225221268
 H         -7.4215888669       -7.3601474965        3.0781047147
 C         -8.1835206323       -5.3785302778        3.3580109915
 H         -8.7922998717       -5.6465447859        4.2091649771
 C         -8.1680184338       -4.0722951229        2.8981152190
 H         -8.7657394703       -3.3180544963        3.3894441783
 C         -7.3881470590       -3.7281992410        1.8093621852
 H         -7.3803771600       -2.7093458334        1.4490442930
 C         -7.1093519272       -5.9722069873       -1.3507620689
 C         -6.7941779885       -7.2545358616       -1.7893944544
 H         -5.7703215018       -7.4938435609       -2.0392279909
 C         -7.7770662275       -8.2211656112       -1.8959825882
 H         -7.5186437429       -9.2143197864       -2.2342206057
 C         -9.0889514900       -7.9180624689       -1.5716809271
 H         -9.8570774420       -8.6727497241       -1.6571640283
 C         -9.4123620296       -6.6428044961       -1.1387175810
 H        -10.4346152816       -6.3992406837       -0.8873050173
 C         -8.4297778542       -5.6765734840       -1.0264614322
 H         -8.6864239190       -4.6804492368       -0.6958695065
 C         -5.5554568851       -5.1855353462       -3.6913036878
 C         -4.5051678730       -5.7308152801       -4.4246236264
 H         -3.5089953101       -5.7341460455       -4.0052056037
 C         -4.7308379208       -6.2858401004       -5.6712540511
 H         -3.9080125759       -6.7141566266       -6.2256371431
 C         -6.0074879161       -6.2938063952       -6.2078075648
 H         -6.1843399766       -6.7281881810       -7.1808711456
 C         -7.0559468314       -5.7384432304       -5.4925537078
 H         -8.0526553179       -5.7336486794       -5.9095469872
 C         -6.8331752322       -5.1883588433       -4.2438458015
 H         -7.6521123656       -4.7479514678       -3.6946972223
 C         -5.9157723905        6.7916477603        3.6694422093
 C          1.5106134471       -0.2857118155       -0.0255015006
 C          0.6187457811       -1.3812199399       -0.0482097167
 H         -6.7939631012        7.7583932895        1.9726118420
 C          1.1549998324       -2.6738163364       -0.0415907247
 H          0.5065098919       -3.5274262477       -0.1280793948
 C          2.5093721611       -2.8841935455        0.0263478381
 H          2.8959021148       -3.8924060590        0.0385711660
 C          3.3993578442       -1.8129582131       -0.0028056351
 C          2.9005135216       -0.5122486160       -0.0718259821
 C          3.8654882959        0.5824621049       -0.3157507009
 C          3.7545411671        1.3369260071       -1.4812799247
 H          2.9323850616        1.1468337908       -2.1564679829
 C          4.6902604668        2.3084155524       -1.7804422794
 H          4.5953594568        2.8802997209       -2.6906890957
 C          5.7468258188        2.5477794979       -0.9177725605
 H          6.4776142091        3.3074046906       -1.1527265753
 C          5.8641010904        1.8056111344        0.2452721849
 H          6.6867144485        1.9858749556        0.9223651936
 C          4.9359403194        0.8242373481        0.5405505831
 H          5.0355930778        0.2480931913        1.4491627245
 C          4.8505316875       -2.0885165589       -0.0323239204
 C          5.6129161932       -1.6658309099       -1.1116004507
 H          5.1365050189       -1.1287025170       -1.9181215274
 C          6.9797972996       -1.8968621590       -1.1704069149
 C          7.6027673050       -2.5925528277       -0.1283886379
 C          6.8379675024       -3.0560874878        0.9467163890
 C          5.4619275471       -2.8091675150        0.9990023837
 C          4.6545204203       -3.3261101720        2.1237887236
 C          3.8713396886       -2.4746373051        2.8965678533
 H          3.8599867612       -1.4158341608        2.6832064046
 C          3.1150677809       -2.9702160083        3.9426373628
 H          2.5148658257       -2.2954267840        4.5359748238
 C          3.1258473768       -4.3248055024        4.2287834118
 H          2.5364179913       -4.7119666513        5.0469721104
 C          3.8942790314       -5.1822256538        3.4593163591
 H          3.9029651253       -6.2413393433        3.6728764048
 C          4.6536266826       -4.6872826551        2.4156976982
 H          5.2447425636       -5.3607820316        1.8122800767
 C          7.4908179023       -3.8054944772        2.0420130721
 C          7.4239584596       -3.3406886639        3.3516939125
 H          6.8948284178       -2.4227820605        3.5640479783
 C          8.0382960458       -4.0374865374        4.3758124150
 H          7.9821242628       -3.6636389222        5.3880637559
 C          8.7228719715       -5.2108011106        4.1062623430
 H          9.2011566801       -5.7558563862        4.9069033196
 C          8.7915408357       -5.6826290835        2.8059239980
 H          9.3226238395       -6.5983501258        2.5894390635
 C          8.1823472504       -4.9839619800        1.7799924079
 H          8.2326876075       -5.3573033270        0.7672078734
 C          9.0561541810       -2.8537746988       -0.1723872612
 C          9.8888980759       -2.4215736100        0.8552741283
 H          9.4671309224       -1.8794562921        1.6893272005
 C         11.2483422725       -2.6692582162        0.8074432853
 H         11.8844372413       -2.3256125501        1.6104653324
 C         11.7938157544       -3.3558107559       -0.2646595993
 H         12.8555944576       -3.5514306849       -0.2997687056
 C         10.9723884701       -3.7897055544       -1.2919494517
 H         11.3919817188       -4.3260845980       -2.1308586805
 C          9.6135244402       -3.5382538076       -1.2482829850
 H          8.9734131975       -3.8819362277       -2.0483121051
 C          7.7400041356       -1.3604536830       -2.3143403972
 C          8.8592891548       -0.5572118819       -2.1159983812
 H          9.1789890900       -0.3285742112       -1.1102482435
 C          9.5522791730       -0.0413153144       -3.1953101729
 H         10.4192239731        0.5812002071       -3.0270578017
 C          9.1391547803       -0.3204900319       -4.4877687356
 H          9.6853534709        0.0781997862       -5.3301961743
 C          8.0203318408       -1.1100179032       -4.6948823093
 H          7.6911237100       -1.3286349265       -5.7007344654
 C          7.3219533339       -1.6214902882       -3.6161446973
 H          6.4537065349       -2.2443310884       -3.7795732985
 C         -4.7718115204        7.1848485690        1.5964973638
 C         -0.3718575034        1.2673010131       -0.3953539779
 C          0.9490845710        1.0539517565        0.0484649967
 H         -6.8031205606        6.8784047275        4.2794076009
 C          1.6567760240        2.1203218585        0.6081842429
 H          2.6227001610        1.9517275723        1.0521527473
 C          1.1235353309        3.3854432032        0.6366021647
 H          1.6905679797        4.2018311423        1.0586257558
 C         -0.1725036734        3.6182339458        0.1828220254
 C         -0.9407415182        2.5525275274       -0.2869890279
 C         -2.3786600788        2.8122416795       -0.5280807645
 C         -2.8053397065        3.7327064161       -1.4790765679
 H         -2.0805721821        4.2244753402       -2.1114836485
 C         -4.1510624372        4.0174660207       -1.6276254398
 H         -4.4682553215        4.7325951479       -2.3729795905
 C         -5.0874458049        3.3968869192       -0.8189648992
 H         -6.1371356926        3.6262629564       -0.9291209061
 C         -4.6713185810        2.4850591508        0.1378516639
 H         -5.3985856682        2.0043052394        0.7761660272
 C         -3.3285013057        2.1937848088        0.2825157555
 H         -3.0002892623        1.4858055978        1.0299580883
 C         -0.7403383400        4.9772788636        0.3103996136
 C         -1.8431445754        5.1877681613        1.1254915849
 H         -2.2815695652        4.3513799916        1.6487150914
 C         -2.4119640530        6.4448400311        1.2703109507
 C         -1.8471575767        7.5334772582        0.5969237902
 C         -0.7120504504        7.3403031274       -0.1962191230
 C         -0.1525207185        6.0657834911       -0.3403272577
 C          1.0636432271        5.8844921597       -1.1606044954
 C          2.2167029419        6.6064238354       -0.8653693628
 H          2.2208784429        7.2780189787       -0.0190871440
 C          3.3527300446        6.4652513225       -1.6397270750
 H          4.2400094786        7.0324555572       -1.3982384349
 C          3.3514996846        5.6068311368       -2.7262407640
 H          4.2348721123        5.5108520530       -3.3406098185
 C          2.2144924262        4.8734884500       -3.0192575217
 H          2.2070772399        4.1979499241       -3.8627170260
 C          1.0814924439        5.0048990294       -2.2376784274
 H          0.1977708433        4.4311206678       -2.4749621166
 C         -0.1019143449        8.4925905454       -0.8947624488
 C          0.3593116026        9.5917588825       -0.1774485824
 H          0.2782229375        9.5958362030        0.9000841389
 C          0.9290005965       10.6679424946       -0.8324730916
 H          1.2864232234       11.5139715016       -0.2633194946
 C          1.0404768327       10.6630620242       -2.2129505432
 H          1.4834819463       11.5052329397       -2.7241774855
 C          0.5815785714        9.5741144326       -2.9351221883
 H          0.6643950526        9.5650230489       -4.0124465771
 C          0.0166661179        8.4949189504       -2.2809450390
 H         -0.3454768553        7.6488587433       -2.8471962108
 C         -2.4313773701        8.8827753687        0.7403781979
 C         -2.5650217376        9.4584506928        2.0003256583
 H         -2.2330873129        8.9122563824        2.8717717160
 C         -3.1057599603       10.7232259109        2.1401056225
 H         -3.1997521447       11.1607893566        3.1235867995
 C         -3.5258177936       11.4277263891        1.0240606170
 H         -3.9492060238       12.4154280445        1.1338328144
 C         -3.4016464599       10.8601987792       -0.2332336163
 H         -3.7304512578       11.4036193415       -1.1073751501
 C         -2.8562081864        9.5976282751       -0.3753062241
 H         -2.7671467456        9.1544358818       -1.3566607221
 C         -3.6228772318        6.5819402377        2.1002924388
 C         -3.6443557786        6.0708625788        3.3949566002
 H         -2.7564597794        5.6013456813        3.7946272924
 C         -4.7808372328        6.1803021397        4.1756026830
 H         -4.7809830056        5.7881358674        5.1826592677
