76
 energy: -117.009799755341 gnorm: 0.000383910030 xtb: 6.6.1 (8d0f1dd)
C            0.57089040947567        0.19493226668768       -0.04258078370880
C           -0.57082445556313       -0.19525935951777       -0.04322867379591
C           -6.30018115407375       -3.11966440469257       -0.11551237781489
C           -5.30729437230111       -4.07659198343727       -0.15479472837578
C           -3.97668431430513       -3.70882111110920       -0.13935101539156
C           -3.59721693909953       -2.35235162674392       -0.07302455389733
C           -4.60833361790528       -1.35110613738651       -0.06270520667839
C           -5.97826693269857       -1.74893738097019       -0.07828762335200
H           -7.34085901367309       -3.40877784721724       -0.12468302745413
H           -5.57116603294155       -5.12343676548991       -0.20196407257515
H           -3.20775237111576       -4.46448464705014       -0.19038642477639
C           -4.26649579526173        0.02410013697734       -0.04240873473581
C           -6.97370244012197       -0.76934197713856       -0.06360413921304
C           -6.66839235323675        0.59597733172251       -0.03425645585168
C           -5.31009577661026        1.02165953041469       -0.02180458142375
H           -8.01055480946601       -1.07459465149754       -0.07671869469697
C           -5.05142859788562        2.39790373309947        0.01043093869094
C           -6.07205364274910        3.31931002733621        0.02614509312951
C           -7.40600784675468        2.90100469560371        0.01041796030481
C           -7.69690795810386        1.56545100121915       -0.01834761504076
H           -4.03432233741720        2.75745114977316        0.02737797250277
H           -5.84355041954637        4.37468864390300        0.05173205141232
H           -8.19854151711182        3.63487387917381        0.02244468957532
H           -8.72268449239955        1.22539472509524       -0.02908250722052
C           -2.91418757898311        0.36504228576747       -0.04947964430117
C           -1.91822924269016       -0.60940598482924       -0.05966677674951
C           -2.23589251605165       -1.96938670747634       -0.05452759235468
H           -2.59490545534630        1.39514106024025       -0.03821362403966
C           -1.02234283370504       -3.83768016384969        1.05998006727643
C            0.05827115283657       -4.69649898363591        1.14191725946148
C            1.03931586348819       -4.67852713338376        0.16447755770532
C            0.93122092926631       -3.79957963104536       -0.90058885519950
C           -0.14518941017710       -2.93616475345641       -0.98281899347045
C           -1.13438630498146       -2.94381985775250       -0.00211626853415
H           -1.77609213794441       -3.83852776151724        1.83471039633721
H            0.13874124978288       -5.37902331217130        1.97559394058727
H            1.88499128147058       -5.34734611819505        0.23326562984198
H            1.68995810103054       -3.78484559525408       -1.67041165017472
H           -0.22908254624969       -2.25445558940421       -1.81639738833326
C            6.30005679007238        3.11972474352005       -0.11554630396375
C            5.30711922017796        4.07659986204157       -0.15476361206937
C            3.97653134265808        3.70876687344708       -0.13908327701350
C            3.59713869113146        2.35229124109383       -0.07254000138444
C            4.60830317142575        1.35110194714750       -0.06221998807457
C            5.97821319586699        1.74898896081186       -0.07815069751430
H            7.34071918770751        3.40888779707780       -0.12494474332179
H            5.57093353110809        5.12345108278528       -0.20211840884597
H            3.20755291948188        4.46438511188814       -0.19010947158863
C            4.26653096914218       -0.02411545307017       -0.04169114216203
C            6.97369118099410        0.76943372409336       -0.06380347245520
C            6.66845005655117       -0.59589845228284       -0.03438705758695
C            5.31017620614369       -1.02162965685044       -0.02125557933416
H            8.01052675187696        1.07472804594610       -0.07730251026395
C            5.05157158587931       -2.39787520682047        0.01132032558640
C            6.07223661119143       -3.31924658653486        0.02644111695266
C            7.40616578757945       -2.90090112514468        0.00977180700856
C            7.69700695472972       -1.56533767674451       -0.01912150441113
H            4.03448709000868       -2.75744928225962        0.02900424703474
H            5.84378407196087       -4.37463056091552        0.05226018008975
H            8.19872884009965       -3.63474835349526        0.02119958419441
H            8.72276717466052       -1.22525314135320       -0.03050453122889
C            2.91423941543347       -0.36510212156621       -0.04859740071414
C            1.91822452683369        0.60930220140755       -0.05892234555367
C            2.23582930951180        1.96928121771597       -0.05394256134242
H            2.59499402758879       -1.39521322722840       -0.03720572257553
C            1.02207059893319        3.83759810206400        1.06029053729816
C           -0.05852170720409        4.69647074537857        1.14196022822200
C           -1.03931775680988        4.67855848091182        0.16426797057913
C           -0.93101370911640        3.79959136259472       -0.90075884038141
C            0.14534412772780        2.93608074434898       -0.98268930394158
C            1.13430596905296        2.94370807863819       -0.00175470967839
H            1.77564952329051        3.83842732808663        1.83518766020214
H           -0.13916098502155        5.37900776649907        1.97560798435971
H           -1.88495662889768        5.34744753361872        0.23282308296324
H           -1.68954512059218        3.78492016678508       -1.67078681422338
H            0.22940618659507        2.25434876446513       -1.81623270956053
