  106
        -25.56288952
 C          4.4312389093        5.0857244011       -0.2975930291
 C          3.4477006877        6.0222533895       -0.4527696102
 C          2.1182843771        5.6568599509       -0.3593820345
 C          1.7463528155        4.3328859873       -0.1576054478
 C          2.7589179168        3.3453365673       -0.0368137565
 C          4.1242728705        3.7397715014       -0.0281480657
 H          5.4551470444        5.3748030017       -0.4525695663
 H          3.7087339506        7.0484157746       -0.6555088331
 H          1.3682886625        6.4157040472       -0.4848618022
 C          5.8318725065        0.3981356059        0.0811079299
 C          4.8058969820        1.3874822113        0.1136674160
 C          5.1463258212        2.7543571190        0.1854870014
 C          6.5344987442        3.1091801773        0.4807895583
 C          7.5294631079        2.1100095112        0.2825127525
 C          7.2078617922        0.7908284277        0.0644330799
 H          8.5577303181        2.4000100128        0.3893751422
 C         10.5068331016       -0.8046907285       -0.7535231491
 C          9.5663885697        0.1412076157       -0.4387628905
 C          8.2364229472       -0.2120715070       -0.1735235428
 C          7.8745400595       -1.5788835368       -0.1990929633
 C          8.8545481355       -2.5163524787       -0.5834850142
 C         10.1434226435       -2.1399097032       -0.8419439074
 H         11.5228294086       -0.5098565551       -0.9600821975
 H          9.8555153733        1.1763925038       -0.4291081186
 H          8.5697513943       -3.5410701436       -0.7414353632
 H         10.8751449397       -2.8773133603       -1.1296885208
 C          0.3488179253        3.9315142604       -0.0883424500
 C         -0.6750297025        4.8709217411       -0.1009624477
 C         -1.9944544415        4.4951725111       -0.0408135305
 C         -2.3665212330        3.1584651315        0.0330636882
 C         -1.3564077031        2.1666747001        0.0285337442
 C          0.0125046617        2.5562898587       -0.0105340718
 H         -0.4419645009        5.9188238924       -0.1454278210
 H         -2.7467591386        5.2618800745       -0.0694731294
 C          1.7101699075       -0.7852921361        0.0528407979
 C          0.6918683923        0.1963272385        0.0432418456
 C          1.0383420221        1.5682485402        0.0239275349
 C          2.4107388214        1.9615231238        0.0347806763
 C          3.4282627805        0.9874808388        0.0668089109
 C          3.0880778650       -0.3955041476        0.0682112204
 C          6.5112859977       -1.9636316215        0.0901295219
 C          5.4906908432       -0.9831897812        0.0815244178
 C          4.1093295988       -1.3702568974        0.0934317885
 C          3.7669901093       -2.7633291515        0.1175219793
 C          4.7581991141       -3.6942073021        0.2822700796
 C          6.1380143186       -3.3407088616        0.3902240571
 H          4.5074085390       -4.7297762717        0.4099960235
 C         -3.7673172810        2.7639548568        0.1150317226
 C         -4.7592180037        3.6948712509        0.2749516484
 C         -6.1392928094        3.3417574244        0.3805802364
 C         -6.5120197061        1.9634821444        0.0856640480
 C         -5.4909515123        0.9834886198        0.0798172895
 C         -4.1095534025        1.3708809216        0.0916166415
 H         -4.5090729296        4.7308931985        0.3999878587
 C         -2.4103865726       -1.9606928375        0.0318181443
 C         -3.4279319934       -0.9867208566        0.0653218509
 C         -3.0880402490        0.3963262464        0.0670674194
 C         -1.7101168016        0.7861753831        0.0525633610
 C         -0.6917448638       -0.1954029480        0.0425071405
 C         -1.0380918055       -1.5673378160        0.0211846699
 C          2.3664851868       -3.1576394848        0.0314394646
 C          1.3564771298       -2.1657754582        0.0267890703
 C         -0.0123083400       -2.5553827928       -0.0143435162
 C         -0.3484650896       -3.9305149485       -0.0948607839
 C          0.6754486324       -4.8698467817       -0.1093296086
 C          1.9947704853       -4.4941744386       -0.0466444894
 H          0.4424910580       -5.9176169348       -0.1571614341
 H          2.7474183627       -5.2605198715       -0.0768920215
 C         -7.8754716412        1.5769820967       -0.2008800794
 C         -8.8564387152        2.5121749787       -0.5885499845
 C        -10.1457249438        2.1341921328       -0.8427830645
 C        -10.5087700083        0.7993981958       -0.7470443417
 C         -9.5673509619       -0.1447126619       -0.4299490417
 C         -8.2369641071        0.2101798512       -0.1689344935
 H         -8.5721292023        3.5360307320       -0.7528098858
 H        -10.8781547043        2.8699357170       -1.1329621771
 H        -11.5251265324        0.5033343836       -0.9500678075
 H         -9.8561231946       -1.1799299983       -0.4152384157
 C         -6.5322782262       -3.1091731251        0.4867980935
 C         -7.5280740182       -2.1104326017        0.2909687801
 C         -7.2074850337       -0.7914950114        0.0696972761
 C         -5.8316611991       -0.3980013043        0.0825036786
 C         -4.8053617382       -1.3869785640        0.1140713562
 C         -5.1452474256       -2.7539644853        0.1869221045
 H         -8.5559108824       -2.4005971174        0.4013994282
 C         -1.7459884687       -4.3318860083       -0.1637805719
 C         -2.7584204694       -3.3444979318       -0.0407771738
 C         -4.1236350969       -3.7391400442       -0.0297444531
 C         -4.4310834838       -5.0849446329       -0.2992802782
 C         -3.4477270508       -6.0212572423       -0.4569082677
 C         -2.1181700425       -5.6557655916       -0.3657161349
 H         -5.4553558814       -5.3739710818       -0.4520246713
 H         -3.7089799004       -7.0473761124       -0.6595474060
 H         -1.3683592952       -6.4145587957       -0.4925669961
 C         -6.8982898475       -4.2923368191        1.0514961508
 H         -7.9237020072       -4.4934583174        1.2864103475
 H         -6.1764414294       -5.0079068345        1.3873586109
 C         -7.0112976681        4.2643365833        0.8658048454
 H         -8.0167783160        4.0100585318        1.1308542418
 H         -6.6844177302        5.2559223776        1.1047565630
 C          7.0091281712       -4.2606038858        0.8820748349
 H          6.6819971755       -5.2509976875        1.1256089103
 H          8.0140774591       -4.0045029724        1.1474358084
 C          6.9029205265        4.2923532132        1.0439285027
 H          7.9292402475        4.4930535556        1.2752315346
 H          6.1826339181        5.0082574717        1.3824078829
