208
 energy: -298.824385323137 gnorm: 0.000179852764 xtb: 6.6.1 (8d0f1dd)
C            0.78210705754658        0.35783922937410        1.20539801622479
C           -0.62241301953106        0.28440356436887        1.27993473866237
C           -1.40532041521960        0.41002680288587        0.09757605826993
C           -0.74601480286238        0.54673350236857       -1.15848562837371
C            0.64821838832129        0.36789979022720       -1.24653039581339
C            1.43358732740509        0.30277196433015       -0.06093239360433
C            2.82514591127417        0.25621721948136       -0.14253713003672
C            3.41304102134398       -0.14496454386027       -1.39582142076513
C            2.64996900939100       -0.07478648824292       -2.58633151729110
C            1.26590054093747        0.33231455205495       -2.51621310994835
C            0.51398802546430        0.68194740922743       -3.63514366831767
C           -0.82339935656345        1.05541772736884       -3.54228240473237
C           -1.49458681765621        0.85586897800028       -2.30903146498624
H            0.97287782317410        0.66043708557407       -4.60948122479348
C           -2.88563437607735        1.10647346156128       -2.19698871613124
C           -3.53107514388360        0.99364737789389       -0.93808108468532
C           -2.79641134524361        0.46812010429518        0.17979551453953
C           -3.42037073954939       -0.01529601769760        1.38573088826383
C           -2.65930200061693       -0.13459134987846        2.57361468199862
C           -1.24644564303575        0.16387797914631        2.54126321801395
C           -0.47347506774821        0.32994115369700        3.68780789652668
C            0.89018752104921        0.60148212651308        3.62947723589267
C            1.54830655532283        0.48080030505842        2.37906909661305
H           -0.93679236306811        0.24188612699978        4.65629022384170
C            2.95556377010929        0.62832603888543        2.28832137308814
C            3.59516615206436        0.59830873797493        1.02175990206913
C           -4.89372005720680        2.03999316821213       -3.15453181208403
C           -5.46619608765711        2.07448317862957       -1.89490975668878
C           -4.82116413390366        1.52170047945863       -0.80860646971134
C           -3.61653608669743        1.51059831665166       -3.34263241471815
H           -5.40845373487331        2.50958587097060       -3.97850927471243
H           -6.42986176743153        2.54454705160127       -1.76093171056399
H           -5.28369306459071        1.57665210551572        0.16412345082270
C           -1.56810106139609        1.55115362012222       -4.67055613212416
C           -2.95976243576947        1.52685840669608       -4.62899237636471
C           -3.68255370621118        1.51128877853338       -5.87622385076252
C           -3.00870110963576        1.81486965465039       -7.07595505857449
C           -1.70166048621154        2.39556709879015       -6.98123336890334
C           -0.94748302295697        2.19060865565410       -5.80213615511978
C            0.31562605915211        2.79264888088179       -5.69498805357227
C            0.87870461891579        3.52693973729987       -6.71643430336451
C            0.09852984404318        3.75617762701351       -7.85733322011006
C           -1.16494868677845        3.23537866799948       -7.96880576486459
H            0.82428679615230        2.72978001355646       -4.74932923765884
H            0.46957231992175        4.39074323124771       -8.64826819055789
H           -1.78300068395531        3.52282001260039       -8.80594823051117
C           -3.65853621985914        1.55041695819650       -8.32190922629191
C           -5.05191699036003        1.29100470819259       -8.33281522543135
C           -5.74838632148755        1.09208006064297       -7.11519440390383
C           -5.01346400213509        1.07752395715777       -5.93572528513401
H           -5.46364961015674        0.68984858453558       -5.03833099335897
C           -7.10824490822219        0.90650240773288       -9.60127951263459
C           -7.83854048858944        0.78856806856700       -8.39234580276015
C           -7.17487113844754        0.87266111040402       -7.14375105772532
C           -5.71296924273795        1.15054169361390       -9.58091544571983
C           -2.95593133750077        1.47945747649337       -9.53278032227383
C           -4.97210012109162        1.22636403070320      -10.77229727876692
C           -3.59449765458192        1.34521381400505      -10.76082064245131
H           -1.87905810314978        1.49560376178803       -9.49471159014943
H           -5.51946802830580        1.13717066026690      -11.69572049481867
C           -1.91026563522023        2.60647684095282      -12.09654646887856
C           -2.75577119416598        1.32638527367784      -12.03006442912294
H           -1.20680639212657        2.66257190749814      -11.27031040915355
H           -1.34308288797123        2.63231318147879      -13.02477302048157
H           -2.55304624965936        3.48415691322137      -12.06193429867206
C           -1.83618217802411        0.09804486030687      -11.99854790589527
H           -2.42840540757669       -0.81304116683367      -11.94187136793295
H           -1.22968655676552        0.06052820160117      -12.90112225488004
H           -1.16957588390456        0.12467167656497      -11.14062595896923
C           -3.61147146707074        1.25564260342896      -13.29740298533725
H           -2.96480701586255        1.26296174719356      -14.17272284763769
H           -4.19999385605643        0.34154927756203      -13.32286974493214
H           -4.28011772968273        2.11089912612355      -13.36490521310649
C           -9.94233540616177        0.50668395623541       -7.22999376809784
C           -9.23425690365641        0.59064723669441       -8.39588695201456
C           -7.93833358197880        0.79723037382162       -5.97196028833862
C           -9.30595102124983        0.62090225739077       -5.98216507935169
H          -11.01072985115311        0.35963593691950       -7.27922681911198
H           -9.73953654126973        0.51540905872098       -9.34778054060224
H           -7.43119596098077        0.89830133496946       -5.02875452182310
C          -11.17941008902888        1.68645203428471       -4.74251732929356
C          -10.13856138275956        0.55765194563864       -4.71272685729516
H          -11.85069487366261        1.58618882687134       -5.59078193929940
H          -11.77634988967293        1.66968848482307       -3.83291651480038
H          -10.68391076760204        2.65278708759151       -4.81287601567779
C          -10.84825391065440       -0.80229805475861       -4.64891209599267
H          -10.11677845697977       -1.60792398855936       -4.64357983575983
H          -11.44523885544777       -0.87137783727951       -3.74183534426764
H          -11.50677453933976       -0.94628760231949       -5.50099335289337
C           -9.29941878042538        0.71947295514794       -3.44171029699512
H           -9.94979202009058        0.66871142456160       -2.57058176653439
H           -8.56003783044902       -0.07350883382347       -3.35349482387103
H           -8.79379964084887        1.68246287749521       -3.42655282638118
C           -8.34564870128011        0.68549424606247      -11.88751555481724
C           -7.77580730349320        0.78501147550721      -10.83063829881328
H           -8.84363907049096        0.59716497869408      -12.80654496002721
C            2.16135858809201        5.66030541242341       -6.66283922581762
C            2.27041550110293        4.13000345433361       -6.62126634563598
H            1.55145714125476        6.01573326117483       -5.83472610432432
H            3.14921593571840        6.10907547173150       -6.58200955319694
H            1.70758656183947        5.99956276657468       -7.59011444721747
C            3.00167934127818        3.73310768464899       -5.33506342273328
H            3.08980492195403        2.65226156917666       -5.24801921084254
H            4.00639608217611        4.15098625533279       -5.34725511093957
H            2.49235629964097        4.11869027381115       -4.45488690788535
C            3.10403484471346        3.63489964539157       -7.81213566774758
H            4.11075658966950        4.04411553300727       -7.76026849664661
H            3.17280587041991        2.54889123690928       -7.79719481166068
H            2.66446057634133        3.93585243896447       -8.75902808085409
C            5.02849606078724        1.28888125999415        3.33106273874804
C            5.60732834886115        1.41077565117450        2.07979847332770
C            4.92435815042276        1.03082613570835        0.94363230093709
C            3.71185495169078        0.84758672583628        3.46730067059478
H            5.57599096904797        1.62491450455089        4.19809080524306
H            6.60645944733570        1.81285455814538        1.99243603674201
H            5.39402892248338        1.15132707139113       -0.01971844785367
C            1.66773568281866        0.91214423090974        4.80090764020362
C            3.05303025883061        0.77983665025235        4.75093583409943
C            3.76685546882147        0.57322010464767        5.98625772198178
C            3.11461278809913        0.80077490734900        7.21442807458460
C            1.85914771399661        1.49187201881595        7.18783969730907
C            1.09602187645565        1.47550102125756        5.99686161341207
C           -0.11369037825406        2.18585995337690        5.95989490319539
C           -0.61999775779808        2.85018693902566        7.05620628557895
C            0.17105922189548        2.89240223396850        8.21176866674323
C            1.38774797622162        2.26215824521475        8.26166697563992
H           -0.62154190330590        2.26564614576455        5.01507947552299
H           -0.15093708602486        3.46685031156263        9.06748628847479
H            2.02329503710939        2.40766854909383        9.12208593137645
C            3.73584731112956        0.35387863228083        8.42231186770510
C            5.10386529999928       -0.01614586303528        8.39945046220465
C            5.78707334464590       -0.14016027998069        7.16450536447413
C            5.05818657243639        0.02967044818009        5.99344969532268
H            5.47934029363715       -0.29556852528479        5.05797024042080
C            7.11769648529011       -0.69584985459818        9.61094886359498
C            7.84104069665555       -0.74339016631324        8.39305452980971
C            7.19120458437219       -0.47518121210978        7.16329328303152
C            5.74642972586736       -0.34052763214751        9.62270404227214
C            3.02476126056128        0.21111945354832        9.62183890443254
C            5.00906186740836       -0.33260351223754       10.81863537214708
C            3.64541359665988       -0.10355669414158       10.82585283246997
H            1.95280350733178        0.31737204822445        9.59038779416796
H            5.54371791697512       -0.56275418130945       11.72497364437247
C            2.06119656466602        1.13857006272243       12.29530608141064
C            2.80256597889192       -0.19032020634686       12.08952596547942
H            1.36782820165002        1.33786362794275       11.48278691536144
H            1.49403300516195        1.11061196386788       13.22348326975210
H            2.77183055682957        1.96109377612348       12.35134794623985
C            1.78841351240892       -1.33138251866049       11.93161835055540
H            2.30660115716217       -2.27545427169413       11.77595818864098
H            1.17703587749392       -1.41626063484853       12.82766421234184
H            1.12968659178528       -1.16087083078748       11.08420448243053
C            3.64464314630155       -0.46309333922375       13.33847690212152
H            2.99698325240159       -0.49729773996597       14.21242251990594
H            4.15842433182944       -1.41864942485117       13.26421957785090
H            4.37896344445274        0.32421603879090       13.49348232411329
C            9.92021482103586       -1.06818741391034        7.19804897783084
C            9.21646443663299       -1.05139242401877        8.36945011496618
C            7.95082376010466       -0.48757787500263        5.98664927003045
C            9.29990797385180       -0.77275967234097        5.97205959902946
H           10.97327970843854       -1.30429229688138        7.22673484303295
H            9.71032709548118       -1.26668845612073        9.30583604518587
H            7.45713825593981       -0.24752160969638        5.06161732870302
C           11.25591040537388        0.26644129790372        4.84276502808619
C           10.12987400509610       -0.76792818467495        4.69932687255802
H           11.91368657400908        0.02563248063051        5.67317507381456
H           11.85347486366576        0.29817546441617        3.93397403824319
H           10.83742216758802        1.25597555534546        5.01586939433785
C           10.73098278548396       -2.16511157515744        4.49019845157826
H            9.93862726989586       -2.90595551970644        4.40395729364630
H           11.32394049840056       -2.18534513840489        3.57808853531624
H           11.37318576222572       -2.44873010514221        5.31938403697932
C            9.31094381182299       -0.40855739452621        3.45593217038151
H            9.95856792373808       -0.41926702011717        2.58134953049096
H            8.51159672152567       -1.12716749361693        3.28879884404890
H            8.88299622397865        0.58763455692654        3.54359217893839
C            8.32432317766203       -1.25443855037146       11.85569739558833
C            7.76856031100484       -0.99914856090780       10.81764339157009
H            8.81008287394521       -1.47836789420884       12.75808756465357
C           -1.72533713171967        5.07395666477556        7.23615797625375
C           -1.95782505926386        3.57075576997088        7.03174588004783
H           -1.08477934759864        5.46519772791608        6.44831504957456
H           -2.67319740176000        5.60738127517538        7.20771457408976
H           -1.24991062572764        5.27431936078850        8.19254031751338
C           -2.71292953665402        3.37414206034054        5.71350702287816
H           -2.88801022505494        2.31950896506989        5.51184713349994
H           -3.68049891932491        3.86843923896499        5.77438574450457
H           -2.16996381613886        3.80894361475058        4.87748571225055
C           -2.83426640779947        3.02045104136131        8.16630677617444
H           -3.80425894094978        3.51313509461342        8.16263859183458
H           -2.99077000161239        1.95143183296081        8.03564944121430
H           -2.37606945106509        3.18184346327998        9.13811572182584
C           -4.74279267817088       -0.48825322909223        1.39039636860391
C           -5.33376631197280       -0.94964123818020        2.54107669671745
C           -4.61377278789444       -0.96896383007054        3.73233258592694
C           -3.29256321454277       -0.59192824623242        3.73666958164408
H           -5.28643136432111       -0.54213114912719        0.45985176764256
H           -6.35016431736594       -1.31445743858256        2.51847093495888
H           -5.08025174673527       -1.32093930795437        4.64071755204146
H           -2.72699522115271       -0.68924511922208        4.65053353259300
C            4.69269641911769       -0.72054528096937       -1.45659871132135
C            5.24921875031848       -1.10320512563351       -2.65244595858461
C            4.53519701088821       -0.93699391735845       -3.83583170621772
C            3.24901781281990       -0.45555305037909       -3.79423293952552
H            5.22612831821970       -0.91719963305460       -0.53946275935353
H            6.23252015392842       -1.54969360349032       -2.67326024622523
H            4.97547011841915       -1.22694851608228       -4.77856094299620
H            2.68137288427381       -0.40870628196295       -4.71078639592742
